LAMMPS (17 Nov 2016)
## 1. Initialization
units         real ## grams/mole, Angstroms, femtoseconds, Kcal/mole, Kelvin, atmospheres, multiple of electron charge (1.0 for a proton)
dimension     3 ## runs a 3D simulation
processors    * * * grid numa ## LAMMPS chooses the appropriate number of processors
boundary      p p p ## periodic in all dimensions
atom_style    full ## bonds, angles, dihedrals, impropers, charge
bond_style    harmonic
angle_style   harmonic

## 2. Atom definition
read_data	water.dat
  orthogonal box = (0 0 0) to (62.4 62.4 62.4)
  reading atoms ...
  24000 atoms
  scanning bonds ...
  scanning angles ...
  reading bonds ...
  16000 bonds
  reading angles ...
  8000 angles

## 3. Settings
pair_style lj/cut/tip4p/long 1 2 1 1 0.1546 8.5
pair_modify tail yes
pair_coeff 2 2 0.0 0.0
pair_coeff 1 2 0.0 0.0
pair_coeff 1 1 0.18520 3.1589
bond_style harmonic
bond_coeff 1 1000.0 0.9572
angle_style harmonic
angle_coeff 1 75.0 104.52
kspace_style pppm/tip4p 1.0e-5

neighbor 2.0 bin
neigh_modify every 1 delay 0 check yes

thermo      50
thermo_style custom step temp press vol density etotal pe ke lx ly lz
thermo_modify norm no flush yes
dump	H2Oxyz all xyz 1000 H2O.xyz
dump  finalpos all custom 15000 finalpos.dump id mol type q xs ys zs vx vy vz
dump_modify finalpos sort id pbc yes
restart 100000 restart.res

compute myRDF all rdf 500 1 1 1 2 2 2
fix 3 all ave/time 2 100 500 c_myRDF[*] file H2O.rdf mode vector

compute myMSD all msd
fix 5 all ave/time 100 1 100 c_myMSD[*] file H2O.msd mode vector

minimize 0 1.0e-6 1000 100000
PPPM initialization ...
  extracting TIP4P info from pair style
  G vector (1/distance) = 0.369088
  grid = 72 72 72
  stencil order = 5
  estimated absolute RMS force accuracy = 0.00333128
  estimated relative force accuracy = 1.00321e-05
  3d grid and FFT values/proc = 33282 15552
  2 neighbor list requests
  update every 1 steps, delay 0 steps, check yes
Step Temp Press Volume Density TotEng PotEng KinEng Lx Ly Lz
0            0     278761.8    242970.62   0.98498402    348721.38    348721.38            0         62.4         62.4         62.4
Averages over the last 11 of 21 rows, steps 500 to 1000:
Temp Press Volume Density TotEng PotEng KinEng Lx Ly Lz
0 -3840.29 242971 0.984984 -109125 -109125 0 62.4 62.4 62.4
Loop time of 28.0199 on 28 procs for 1000 steps with 24000 atoms

Minimization stats:
  Stopping criterion = max iterations
  Energy initial, next-to-last, final =
  Force two-norm initial, final = 13409 85.1476
  Force max component initial, final = 106.58 10.4559
  Final line search alpha, max atom move = 0.00955674 0.0999247
  Iterations, force evaluations = 1000 1921

velocity all create 10.0 12345678

fix 1 all shake 0.0001 20 10000 b 1 a 1
fix 2 all npt temp 300.0 300.0 100.0 iso 1.0 1.0 1000.0
fix 4 all momentum 1 linear 1 1 1

## 4. Run
timestep 1.0
run 5000
PPPM initialization ...
  extracting TIP4P info from pair style
  G vector (1/distance) = 0.369088
  grid = 72 72 72
  stencil order = 5
  estimated absolute RMS force accuracy = 0.00333128
  estimated relative force accuracy = 1.00321e-05
  3d grid and FFT values/proc = 33282 15552
SHAKE stats (type/ave/delta) on step 1000
Step Temp Press Volume Density TotEng PotEng KinEng Lx Ly Lz
1000    15.000313   -3174.0179    242970.62   0.98498402   -112894.45   -113609.82     715.3646         62.4         62.4         62.4
Averages over the last 51 of 101 rows, steps 3500 to 6000:
Temp Press Volume Density TotEng PotEng KinEng Lx Ly Lz
299.651 -23.1539 240625 0.994592 -76296.5 -90586.8 14290.4 62.1985 62.1985 62.1985
Loop time of 110.575 on 28 procs for 5000 steps with 24000 atoms

fix 6 all efield 0.0 0.0 0.225

timestep 1.0
run 10000
PPPM initialization ...
  extracting TIP4P info from pair style
  G vector (1/distance) = 0.369398
  grid = 72 72 72
  stencil order = 5
  estimated absolute RMS force accuracy = 0.00329482
  estimated relative force accuracy = 9.92225e-06
  3d grid and FFT values/proc = 33282 15552
SHAKE stats (type/ave/delta) on step 6000
Step Temp Press Volume Density TotEng PotEng KinEng Lx Ly Lz
6000    298.93084   -31.461491    240282.01   0.99600543   -76513.612   -90769.617    14256.006    62.168981    62.168981    62.168981
Averages over the last 101 of 201 rows, steps 11000 to 16000:
Temp Press Volume Density TotEng PotEng KinEng Lx Ly Lz
300.045 5.94132 218486 1.09537 -79146.9 -93456 14309.1 60.2293 60.2293 60.2293
Loop time of 231.955 on 28 procs for 10000 steps with 24000 atoms

clear
