LAMMPS (17 Nov 2016)
## 1. Initialization
units         real ## grams/mole, Angstroms, femtoseconds, Kcal/mole, Kelvin, atmospheres, multiple of electron charge (1.0 for a proton)
dimension     3 ## runs a 3D simulation
processors    * * * grid numa ## LAMMPS chooses the appropriate number of processors
boundary      p p p ## periodic in all dimensions
atom_style    full ## bonds, angles, dihedrals, impropers, charge
bond_style    harmonic
angle_style   harmonic

## 2. Atom definition
read_data	water.dat
  orthogonal box = (0 0 0) to (31 31 31)
  reading atoms ...
  3000 atoms
  scanning bonds ...
  scanning angles ...
  reading bonds ...
  2000 bonds
  reading angles ...
  1000 angles

## 3. Settings
pair_style lj/cut/tip4p/long 1 2 1 1 0.1546 8.5
pair_modify tail yes
pair_coeff 2 2 0.0 0.0
pair_coeff 1 2 0.0 0.0
pair_coeff 1 1 0.18520 3.1589
bond_style harmonic
bond_coeff 1 1000.0 0.9572
angle_style harmonic
angle_coeff 1 75.0 104.52
kspace_style pppm/tip4p 1.0e-5

neighbor 2.0 bin
neigh_modify every 1 delay 0 check yes

thermo      50
thermo_style custom step temp press vol density etotal pe ke lx ly lz
thermo_modify norm no flush yes
dump	H2Oxyz all xyz 1000 H2O.xyz
dump  finalpos all custom 150000 finalpos.dump id mol type q xs ys zs vx vy vz
dump_modify finalpos sort id pbc yes
restart 100000 restart.res

compute myRDF all rdf 500 1 1 1 2 2 2
fix 3 all ave/time 2 100 500 c_myRDF[*] file H2O.rdf mode vector

compute myMSD all msd
fix 5 all ave/time 100 1 100 c_myMSD[*] file H2O.msd mode vector

minimize 0 1.0e-6 1000 100000
PPPM initialization ...
  extracting TIP4P info from pair style
  G vector (1/distance) = 0.369625
  grid = 36 36 36
  stencil order = 5
  estimated absolute RMS force accuracy = 0.00326832
  estimated relative force accuracy = 9.84246e-06
  3d grid and FFT values/proc = 8125 2592
  2 neighbor list requests
  update every 1 steps, delay 0 steps, check yes
Step Temp Press Volume Density TotEng PotEng KinEng Lx Ly Lz
0            0    6255.6388        29791    1.0041715    -6097.095    -6097.095            0           31           31           31
Loop time of 0.212203 on 28 procs for 6 steps with 3000 atoms

Minimization stats:
  Stopping criterion = linesearch alpha is zero
  Energy initial, next-to-last, final =
  Force two-norm initial, final = 578.984 2.30253
  Force max component initial, final = 14.8097 0.0591784
  Final line search alpha, max atom move = 1.86265e-09 1.10228e-10
  Iterations, force evaluations = 6 66

velocity all create 10.0 12345678

fix 1 all shake 0.0001 20 10000 b 1 a 1
fix 2 all npt temp 300.0 300.0 100.0 iso 1.0 1.0 1000.0
fix 4 all momentum 1 linear 1 1 1

## 4. Run
timestep 1.0
run 50000
PPPM initialization ...
  extracting TIP4P info from pair style
  G vector (1/distance) = 0.369625
  grid = 36 36 36
  stencil order = 5
  estimated absolute RMS force accuracy = 0.00326832
  estimated relative force accuracy = 9.84246e-06
  3d grid and FFT values/proc = 8125 2592
SHAKE stats (type/ave/delta) on step 6
Step Temp Press Volume Density TotEng PotEng KinEng Lx Ly Lz
6    15.002501   -1933.3347        29791    1.0041715   -6190.9825    -6280.377    89.394493           31           31           31
Averages over the last 501 of 1002 rows, steps 25050 to 50006:
Temp Press Volume Density TotEng PotEng KinEng Lx Ly Lz
299.872 4.0563 30007.6 0.996972 -9618.72 -11405.5 1786.83 31.0748 31.0748 31.0748
Loop time of 168.364 on 28 procs for 50000 steps with 3000 atoms

fix 6 all efield 0.0 0.0 0.225

timestep 1.0
run 100000
PPPM initialization ...
  extracting TIP4P info from pair style
  G vector (1/distance) = 0.36949
  grid = 36 36 36
  stencil order = 5
  estimated absolute RMS force accuracy = 0.00328403
  estimated relative force accuracy = 9.88975e-06
  3d grid and FFT values/proc = 8125 2592
SHAKE stats (type/ave/delta) on step 50006
Step Temp Press Volume Density TotEng PotEng KinEng Lx Ly Lz
50006    302.81443   -882.76869    29935.775   0.99931513   -9493.0235   -11297.385    1804.3619    31.050136    31.050136    31.050136
Averages over the last 1001 of 2002 rows, steps 100050 to 150006:
Temp Press Volume Density TotEng PotEng KinEng Lx Ly Lz
299.705 13.747 27337.5 1.09433 -9933.72 -11719.6 1785.83 30.1244 30.1244 30.1244
Loop time of 343.512 on 28 procs for 100000 steps with 3000 atoms

clear
